Version 4
SHEET 1 2320 692
WIRE 400 -96 80 -96
WIRE 624 -96 464 -96
WIRE 768 -96 624 -96
WIRE 992 -96 832 -96
WIRE 1408 -96 992 -96
WIRE 1840 -96 1408 -96
WIRE 1952 -96 1920 -96
WIRE 2208 -96 2032 -96
WIRE 1920 -32 1920 -96
WIRE 624 16 624 -96
WIRE 992 16 992 -96
WIRE 1408 16 1408 -96
WIRE 1840 48 1840 -96
WIRE 1776 96 1712 96
WIRE 2208 96 2208 -96
WIRE 80 112 80 -96
WIRE 1408 176 1408 96
WIRE 1712 176 1712 96
WIRE 1712 176 1408 176
WIRE 1840 176 1840 144
WIRE 2160 176 1840 176
WIRE 992 192 992 80
WIRE 2208 192 2208 176
WIRE 1840 208 1840 176
WIRE 1408 224 1408 176
WIRE 80 240 80 192
WIRE 1712 256 1712 176
WIRE 1776 256 1712 256
WIRE 1168 272 1056 272
WIRE 1344 272 1248 272
WIRE 624 384 624 80
WIRE 624 384 80 384
WIRE 1408 384 1408 320
WIRE 1840 384 1840 304
WIRE 2208 384 2208 192
WIRE 80 432 80 384
WIRE 1056 528 1056 272
WIRE 2208 528 2208 464
WIRE 80 560 80 512
WIRE 1056 672 1056 608
FLAG 80 240 0
FLAG 80 560 0
FLAG 992 192 0
FLAG 1920 -32 0
FLAG 2208 528 0
FLAG 1840 384 0
FLAG 1056 672 0
FLAG 1408 384 0
SYMBOL voltage 80 96 R0
WINDOW 123 0 0 Left 0
WINDOW 39 0 0 Left 0
SYMATTR InstName V1
SYMATTR Value 20
SYMBOL schottky 400 -80 R270
WINDOW 0 32 32 VTop 2
WINDOW 3 0 32 VBottom 2
SYMATTR InstName D1
SYMATTR Value 1N5817
SYMATTR Description Diode
SYMATTR Type diode
SYMBOL schottky 768 -80 R270
WINDOW 0 32 32 VTop 2
WINDOW 3 0 32 VBottom 2
SYMATTR InstName D2
SYMATTR Value 1N5817
SYMATTR Description Diode
SYMATTR Type diode
SYMBOL cap 608 16 R0
SYMATTR InstName C1
SYMATTR Value 47µ
SYMBOL cap 976 16 R0
SYMATTR InstName C2
SYMATTR Value 47µ
SYMBOL voltage 80 416 R0
WINDOW 123 0 0 Left 0
WINDOW 39 0 0 Left 0
SYMATTR InstName V2
SYMATTR Value PULSE(0 20 0 1p 1p 1ms 2ms)
SYMBOL voltage 2048 -96 R90
WINDOW 0 -32 56 VBottom 2
WINDOW 3 32 56 VTop 2
WINDOW 123 0 0 Left 0
WINDOW 39 0 0 Left 0
SYMATTR InstName V3
SYMATTR Value 20
SYMBOL res 2192 368 R0
SYMATTR InstName R2
SYMATTR Value 100
SYMBOL nmos 2160 96 R0
SYMATTR InstName M1
SYMATTR Value IRFZ44N
SYMBOL npn 1776 48 R0
SYMATTR InstName Q1
SYMATTR Value 2N2222
SYMBOL pnp 1776 304 M180
SYMATTR InstName Q2
SYMATTR Value 2N2907
SYMBOL voltage 1056 512 R0
WINDOW 123 0 0 Left 0
WINDOW 39 0 0 Left 0
SYMATTR InstName V4
SYMATTR Value PULSE(0 3.3 0 1p 1p 1ms 5ms)
SYMBOL npn 1344 224 R0
SYMATTR InstName Q3
SYMBOL res 1392 0 R0
SYMATTR InstName R3
SYMATTR Value 10k
SYMBOL res 1264 256 R90
WINDOW 0 0 56 VBottom 2
WINDOW 3 32 56 VTop 2
SYMATTR InstName R1
SYMATTR Value 10k
TEXT 46 584 Left 2 !.tran 20ms
